5
Properties=species:S:1:pos:R:3 pbc="F F F"
Au       0.00000000       0.00000000       0.00000000
Au       1.00000000       1.00000000       0.00000000
Au       2.00000000       2.00000000       0.00000000
Au       3.00000000       3.00000000       0.00000000
Au       4.00000000       4.00000000       0.00000000
